Hello! My name is Richard Alexandrino de Macedo.
New line.